Modified IEEE34/dss/loads.dss
! Distributed loads (placed entirely at Node B per user instruction)
New Load.D802_806_b Bus1=806.2 Phases=1 Conn=Wye Model=1 kV=14.376 kW=30.0 kVAR=15.0
New Load.D802_806_c Bus1=806.3 Phases=1 Conn=Wye Model=1 kV=14.376 kW=25.0 kVAR=14.0
New Load.D808_810_b Bus1=810.2 Phases=1 Conn=Wye Model=5 kV=14.376 kW=16.0 kVAR=8.0
New Load.D818_820_a Bus1=820.1 Phases=1 Conn=Wye Model=2 kV=14.376 kW=34.0 kVAR=17.0
New Load.D820_822_a Bus1=822.1 Phases=1 Conn=Wye Model=1 kV=14.376 kW=135.0 kVAR=70.0
New Load.D816_824_b Bus1=824.2.3 Phases=1 Conn=Delta Model=5 kV=24.900 kW=5.0 kVAR=2.0
New Load.D824_826_b Bus1=826.2 Phases=1 Conn=Wye Model=5 kV=14.376 kW=40.0 kVAR=20.0
New Load.D824_828_c Bus1=828.3 Phases=1 Conn=Wye Model=1 kV=14.376 kW=4.0 kVAR=2.0
New Load.D828_830_a Bus1=830.1 Phases=1 Conn=Wye Model=1 kV=14.376 kW=7.0 kVAR=3.0
New Load.D854_856_b Bus1=856.2 Phases=1 Conn=Wye Model=1 kV=14.376 kW=4.0 kVAR=2.0
New Load.D832_858_a Bus1=858.1.2 Phases=1 Conn=Delta Model=2 kV=24.900 kW=7.0 kVAR=3.0
New Load.D832_858_b Bus1=858.2.3 Phases=1 Conn=Delta Model=2 kV=24.900 kW=2.0 kVAR=1.0
New Load.D832_858_c Bus1=858.3.1 Phases=1 Conn=Delta Model=2 kV=24.900 kW=6.0 kVAR=3.0
New Load.D858_864_a Bus1=864.1 Phases=1 Conn=Wye Model=1 kV=14.376 kW=2.0 kVAR=1.0
New Load.D858_834_a Bus1=834.1.2 Phases=1 Conn=Delta Model=1 kV=24.900 kW=4.0 kVAR=2.0
New Load.D858_834_b Bus1=834.2.3 Phases=1 Conn=Delta Model=1 kV=24.900 kW=15.0 kVAR=8.0
New Load.D858_834_c Bus1=834.3.1 Phases=1 Conn=Delta Model=1 kV=24.900 kW=13.0 kVAR=7.0
New Load.D834_860_a Bus1=860.1.2 Phases=1 Conn=Delta Model=2 kV=24.900 kW=16.0 kVAR=8.0
New Load.D834_860_b Bus1=860.2.3 Phases=1 Conn=Delta Model=2 kV=24.900 kW=20.0 kVAR=10.0
New Load.D834_860_c Bus1=860.3.1 Phases=1 Conn=Delta Model=2 kV=24.900 kW=110.0 kVAR=55.0
New Load.D860_836_a Bus1=836.1.2 Phases=1 Conn=Delta Model=1 kV=24.900 kW=30.0 kVAR=15.0
New Load.D860_836_b Bus1=836.2.3 Phases=1 Conn=Delta Model=1 kV=24.900 kW=10.0 kVAR=6.0
New Load.D860_836_c Bus1=836.3.1 Phases=1 Conn=Delta Model=1 kV=24.900 kW=42.0 kVAR=22.0
New Load.D836_840_a Bus1=840.1.2 Phases=1 Conn=Delta Model=5 kV=24.900 kW=18.0 kVAR=9.0
New Load.D836_840_b Bus1=840.2.3 Phases=1 Conn=Delta Model=5 kV=24.900 kW=22.0 kVAR=11.0
New Load.D862_838_b Bus1=838.2 Phases=1 Conn=Wye Model=1 kV=14.376 kW=28.0 kVAR=14.0
New Load.D842_844_a Bus1=844.1 Phases=1 Conn=Wye Model=1 kV=14.376 kW=9.0 kVAR=5.0
New Load.D844_846_b Bus1=846.2 Phases=1 Conn=Wye Model=1 kV=14.376 kW=25.0 kVAR=12.0
New Load.D844_846_c Bus1=846.3 Phases=1 Conn=Wye Model=1 kV=14.376 kW=20.0 kVAR=11.0
New Load.D846_848_b Bus1=848.2 Phases=1 Conn=Wye Model=1 kV=14.376 kW=23.0 kVAR=11.0

! --- SPOT LOADS ---
New Load.S860_a Bus1=860.1 Phases=1 Conn=Wye Model=1 kV=14.376 kW=20.0 kVAR=16.0
New Load.S860_b Bus1=860.2 Phases=1 Conn=Wye Model=1 kV=14.376 kW=20.0 kVAR=16.0
New Load.S860_c Bus1=860.3 Phases=1 Conn=Wye Model=1 kV=14.376 kW=20.0 kVAR=16.0
New Load.S840_a Bus1=840.1 Phases=1 Conn=Wye Model=5 kV=14.376 kW=9.0 kVAR=7.0
New Load.S840_b Bus1=840.2 Phases=1 Conn=Wye Model=5 kV=14.376 kW=9.0 kVAR=7.0
New Load.S840_c Bus1=840.3 Phases=1 Conn=Wye Model=5 kV=14.376 kW=9.0 kVAR=7.0
New Load.S844_a Bus1=844.1 Phases=1 Conn=Wye Model=2 kV=14.376 kW=135.0 kVAR=105.0
New Load.S844_b Bus1=844.2 Phases=1 Conn=Wye Model=2 kV=14.376 kW=135.0 kVAR=105.0
New Load.S844_c Bus1=844.3 Phases=1 Conn=Wye Model=2 kV=14.376 kW=135.0 kVAR=105.0
New Load.S848_a Bus1=848.1.2 Phases=1 Conn=Delta Model=1 kV=24.900 kW=20.0 kVAR=16.0
New Load.S848_b Bus1=848.2.3 Phases=1 Conn=Delta Model=1 kV=24.900 kW=20.0 kVAR=16.0
New Load.S848_c Bus1=848.3.1 Phases=1 Conn=Delta Model=1 kV=24.900 kW=20.0 kVAR=16.0
New Load.S890_a Bus1=890.1.2 Phases=1 Conn=Delta Model=5 kV=4.160 kW=150.0 kVAR=75.0
New Load.S890_b Bus1=890.2.3 Phases=1 Conn=Delta Model=5 kV=4.160 kW=150.0 kVAR=75.0
New Load.S890_c Bus1=890.3.1 Phases=1 Conn=Delta Model=5 kV=4.160 kW=150.0 kVAR=75.0
New Load.S830_a Bus1=830.1.2 Phases=1 Conn=Delta Model=2 kV=24.900 kW=10.0 kVAR=5.0
New Load.S830_b Bus1=830.2.3 Phases=1 Conn=Delta Model=2 kV=24.900 kW=10.0 kVAR=5.0
New Load.S830_c Bus1=830.3.1 Phases=1 Conn=Delta Model=2 kV=24.900 kW=25.0 kVAR=10.0
